REMARK  9 active torsions:
REMARK  status: ('A' for Active; 'I' for Inactive)
REMARK    1  A    between atoms: C_1  and  C_3 
REMARK    2  A    between atoms: C_3  and  C_4 
REMARK    3  A    between atoms: C_5  and  C_6 
REMARK    4  A    between atoms: C_5  and  C_7 
REMARK    5  A    between atoms: C_10  and  O_18 
REMARK    6  A    between atoms: C_15  and  O_27 
REMARK    7  A    between atoms: C_19  and  O_18 
REMARK    8  A    between atoms: C_19  and  C_20 
REMARK    9  A    between atoms: C_20  and  N_21 
ROOT
HETATM    1  C           1      84.943  51.980  44.582  0.00  0.00     0.036 C 
HETATM    2  C           1      85.739  51.006  43.724  0.00  0.00     0.010 C 
ENDROOT
BRANCH   1   3
HETATM    3  C           1      85.814  53.138  44.962  0.00  0.00    -0.036 C 
HETATM    4  C           1      85.323  54.123  45.720  0.00  0.00    -0.009 C 
BRANCH   4   5
HETATM    5  C           1      86.101  55.157  46.058  0.00  0.00    -0.024 A 
HETATM    6  C           1      86.762  55.885  45.070  0.00  0.00     0.015 A 
HETATM    7  C           1      87.574  56.963  45.424  0.00  0.00     0.037 A 
HETATM    8  C           1      87.724  57.314  46.766  0.00  0.00     0.065 A 
HETATM    9  C           1      87.062  56.585  47.754  0.00  0.00     0.037 A 
HETATM   10  C           1      86.251  55.506  47.400  0.00  0.00     0.015 A 
BRANCH   8  11
HETATM   11  O           1      88.513  58.360  47.109  0.00  0.00    -0.361 OA
HETATM   12  H           1      88.883  58.737  46.294  0.00  0.00     0.217 HD
ENDBRANCH   8  11
ENDBRANCH   4   5
BRANCH   4  13
HETATM   13  C           1      84.055  54.076  46.139  0.00  0.00    -0.024 A 
HETATM   14  C           1      83.543  55.105  46.930  0.00  0.00     0.015 A 
HETATM   15  C           1      82.219  55.056  47.367  0.00  0.00     0.037 A 
HETATM   16  C           1      81.407  53.977  47.013  0.00  0.00     0.068 A 
HETATM   17  C           1      81.920  52.949  46.223  0.00  0.00     0.037 A 
HETATM   18  C           1      83.243  52.998  45.786  0.00  0.00     0.015 A 
BRANCH  16  19
HETATM   19  O           1      80.122  53.930  47.439  0.00  0.00    -0.350 OA
BRANCH  19  20
HETATM   20  C           1      79.812  55.055  48.215  0.00  0.00     0.203 C 
BRANCH  20  21
HETATM   21  C           1      78.363  54.971  48.677  0.00  0.00     0.256 C 
BRANCH  21  22
HETATM   22  N           1      78.031  56.174  49.508  0.00  0.00    -0.077 N 
HETATM   23  H           1      77.036  56.117  49.824  0.00  0.00     0.274 HD
HETATM   24  H           1      78.660  56.205  50.341  0.00  0.00     0.274 HD
HETATM   25  H           1      78.165  57.039  48.937  0.00  0.00     0.274 HD
ENDBRANCH  21  22
ENDBRANCH  20  21
ENDBRANCH  19  20
ENDBRANCH  16  19
ENDBRANCH   4  13
BRANCH   3  26
HETATM   26  C           1      87.083  53.185  44.543  0.00  0.00    -0.029 A 
HETATM   27  C           1      88.017  53.212  45.579  0.00  0.00     0.012 A 
HETATM   28  C           1      89.311  52.740  45.363  0.00  0.00     0.001 A 
HETATM   29  C           1      89.672  52.241  44.111  0.00  0.00     0.000 A 
HETATM   30  C           1      88.739  52.213  43.076  0.00  0.00     0.001 A 
HETATM   31  C           1      87.444  52.686  43.291  0.00  0.00     0.012 A 
ENDBRANCH   3  26
ENDBRANCH   1   3
TORSDOF 9
